cpo
pcf
nat
lift
dyn
static
adequacy
sund
denotational
snf
operational
denable
semantics
compile
compilation
undenedness
dened
dapp
dund
cpos
pred
dynamic
interpretation
denition
hf
junk
residual
lemma
binding
arrow
compiled
induction
lambda
distinction
equational
sd
interpreted
ifz
typed
commutes
undened
substitution
name
interpret
evaluator
languages
uence
gi
handbook
purely
language
functor
termination
calculus
closed
factorisations
morphisms
formation
terminate
dene
embeds
counterpart
categorical
pragmatics
hypothesis
pow
lazy
partial
interpretations
pd
denotation
reductions
statically
relate
conversely
untyped
morphism
ut
usual
polymorphic
cartesian
intended
valid
rst
reduction
machinery
bool
rules
lifting
translation
interpreting
correctness
phases
semantic
nthen
parametrisation
postponent
compil
ftrue
plift
cuted
enrichment
hid
leeuwen
category
subtraction
specialized
continuous
terminating
wise
invalid
propagating
logical
soundness
interpretative
eugenio
unde
hearn
culus
lcf
falseg
id
diagrams
evaluations
chains
underlines
parametrised
intuitionistic
moggi
directed
isolation
rule
monotone
failure
respected
pv
fragment
abstraction
program
behaves
nal
murst
specialisation
formedness
evaluators
hh
essentially
contexts
preserves
deserve
seman
borrowing
px
exe
postponed
canonical
behaviour
categories
immediate
naturals
ned
xx
constructs
lemmas
cult
projection
postpone
asserting
novelty
judgement
conrms
versions
logic
crucial
macros
succ
cal
recursion
adequate
interplay
exibility
booleans
reconsider
equivalences
understand
syntactic
diagram
modications
behave
exponential
tics
comparatively
ness
relations
incorporate
calculi
dynamic terms
partial evaluation
level pcf
dynamic types
operational semantics
type nat
term m
dyn f
denotational model
m 0
r d1
compile time
adequacy theorem
level languages
static reduction
lift n
name pcf
binding time
logical relation
directed partial
non termination
b r
run time
closed term
dynamic type
induction hypothesis
r d2
denable functions
sub term
d lift
static adequacy
dynamic adequacy
pred m
x lift
type directed
type formation
level language
case m
purely dynamic
residual program
nat nat
x m
denotational semantics
type d
two level
dynamic arrow
term sund
partial evaluator
dynamic ones
cpo x
pairs hf
lift 0
environment x
static components
hf gi
point wise
terms like
interpret dynamic
functor categories
type assignment
m 00
static undenedness
lift sund
lazy calculus
category cpo
dynamic evaluation
immediate otherwise
equational theory
x x
c 7
d 0
f 6
type unit
formation rules
substitution lemma
execution phases
f b
r d
typed term
static types
cartesian closed
unit unit
cases case
time analysis
base types
m d
least element
f r
dynamic counterpart
terms pred
static term
reduced dynamically
m pred
dapp dyn
usual interpretation
sd m
like call
standard pcf
m sd
dynamic numbers
component dened
call by name
dened by x
type directed partial
two level languages
give an operational
directed partial evaluation
interpretation of dynamic
r d2 g
d lift n
x a p
f b r
static and dynamic
binding time analysis
semantics of dynamic
dyn f r
purely dynamic terms
compilation and execution
x m 0
terminate at compile
r d1 d2
b r d2
b r d
pairs hf gi
type formation rules
f r d1
dynamic type d
call by value
term of type
closed term m
interpretation of terms
denition of dyn
dened as follows
obtained from pcf
m m sd
m pred m
type unit unit
dynamic adequacy theorem
identity on x
interpret terms like
model of 2
must have dynamic
pred m pred
dynamic sub term
time information inside
r d1 c
sd m 0
polymorphic binding time
static normal form
handbook of logic
dynamic value d
dapp dyn f
dyn f b
given to relate
dene a translation
logical relation r
snf and m
kinds of undenedness
b r d1
term m 00
dyn f 6
f be x
m let f
lemma 16 hence
m sd m
taken in isolation
bounds of chains
relation is essentially
semantics an equational
cpo is dened
f be c
d m 0
