cores
bypass
core
port
tpgr
misr
scan
bit
shortest
sink
ports
circuitry
bypassing
schedule
pcf
mode
cbg
circuit
infinity
wires
accessibility
cycles
testing
packets
dijkstra
controller
interconnections
transfer
paths
bypasses
bist
isolation
coverage
scheduling
fault
chip
interconnects
structural
transferred
parenthesis
widths
registers
asap
route
serial
isolated
mergeable
asic
reusable
dft
factorizing
inputs
syntest
multiplexors
transistor
clock
circuits
signatures
primary
faults
fastest
micron
compass
yoneda
tomokazu
interconnect
activities
match
automation
path
routes
outputs
chains
tentative
cmos
factorize
rtl
fujiwara
datapath
intellectual
hideo
embedded
unmarked
signal
schedules
overhead
chain
pipeline
bus
signature
bypassed
soft
buses
testable
synthesis
factorized
programmable
testability
tri
programmability
packetization
cota
packetizing
packetize
lubaszewski
carro
rika
width
logic
vlsi
europe
source
pile
gentest
busses
mux
nin
interfering
flip
char
characteristic
scrambled
packetized
vertex
overlap
pipelining
socs
vq
manuals
signals
protection
consumes
interface
predefined
eight
luigi
bellman
munich
stages
packet
pipelined
connections
marcelo
flops
jej
electronic
ort
entirety
shaded
wrapper
pursued
designer
summarized
tester
providers
cycle
ij
session
output
pseudocode
buffers
thoroughly
reusing
gate
cheaper
modes
library
methodology
patterns
reflecting
test time
core 1
test data
infinity infinity
bit match
bit data
output test
system primary
core k
shortest paths
cost values
fault coverage
test paths
test path
structural test
bypass mode
time cost
shortest path
core input
tpgr misr
test controller
four cores
dijkstra algorithm
b bit
output ports
output port
core 2
bypass scheduling
test shortest
port j
input test
bit widths
bypass circuitry
bypassing data
isolated core
bypass schedule
test point
core 4
bit width
input port
input ports
test points
input output
core based
cores signal
signal name
match circuit
misr stop_4
misr misr
tpgr tpgr
core environment
m bit
primary inputs
test patterns
test overhead
scheduling method
hard cores
embedded cores
global source
complete bypass
bypasses data
directed weighted
existing interconnections
test methodology
bit test
fastest route
name 17
bypass routes
transfer test
inputs outputs
design automation
paths 1
characteristic function
source sink
logic level
primary outputs
time overhead
n bit
path algorithm
reusable blocks
isolation techniques
n stages
bypass data
e cycles
without interfering
state buffers
tri state
scan registers
proposed structural
tentative path
micron cmos
global global
core circuitry
path weights
graph modeling
one core
existing wires
cycles cores
cbg graph
interface cost
programmable e
core output
core 3
k bit
two test
m n
weighted graph
infinity infinity infinity
test shortest paths
source and sink
system on chip
misr stop_4 stop_3
core under test
bit match circuit
cores signal name
output test shortest
tpgr misr stop_4
b bit data
input output test
data is transferred
directed weighted graph
tpgr tpgr tpgr
schedule for core
signal name 17
two test points
parallel to serial
transfer test data
system primary inputs
bit test data
misr misr misr
serial to parallel
finding the shortest
tri state buffers
test data distribution
cost d b
input test paths
isolated core environment
environment of core
bit input port
system primary outputs
programmable e g
input test path
output test path
packets of data
output test paths
route to transfer
core input ports
packets of 4
global global source
p s bit
cores are reusable
core based system
time cost d
design for test
example of figure
m n m
shortest path problem
core based systems
shortest path algorithm
terms of time
input and output
test in europe
figure 8 b
automation and test
electronic testing theory
figure 7 c
journal of electronic
algorithm to find
m bit input
transferred in 8
rika cota luigi
available bypass connections
n bit output
factorize the characteristic
point 2nd test
char interface cost
test data b
problem as finding
