retraction
cps
sps
lambda
transform
oe
joek
pi
app
typing
axioms
transforms
omega
monads
moggi
jmkae
typed
definable
continuation
ae
embedding
calculus
tg
provable
soundness
codomain
sequents
interpretation
denotational
style
interpretations
monadic
constants
equational
axiom
divergence
inference
untyped
wand
logic
pcf
recursive
equivalence
encap
caluclus
divergent
lemma
abs
gamma
joe
meyer
definitions
passing
pure
fij
fixpoint
closed
inductively
substitution
reasoning
inverse
language
sabry
retract
functional
implication
felleisen
semantics
ml
fs
sound
mutable
continuations
diverges
understood
says
equality
induction
modified
asserting
theorems
interfering
assertion
difficulty
membership
sketch
asserts
isolate
parameterized
notions
hyperdoctrines
diver
numerals
axions
aefv
overline
continutions
oef
metalanguage
crole
unrea
strachey
operators
equalities
interpret
discipline
recursion
equipped
hypothesis
mapping
extensions
programs
recovered
impure
discoveries
sonable
retractions
deltak
comprehending
viswanathan
queen
effortlessly
filinski
riecke
letrec
closure
imperative
letters
languages
effects
elementary
fill
var
motivate
typable
definability
singled
unjustified
andrzej
haven
fore
abstract
satisfies
affirmative
pitts
disambiguate
tuitively
gence
isolating
correspondence
contin
fj
monad
banach
axiomatization
typ
analogous
operator
truth
validity
preserves
stronger
mantics
xk
hypotheses
ku
reynolds
abbreviates
uation
seemed
act
computations
extend
constructs
picture
naval
retraction theorem
cps transform
lambda terms
computational transform
type oe
sps transform
r oe
modified computational
retraction embedding
type sets
terms r
sps transforms
term m
terms e
m pi
computational lambda
lambda calculus
r e
passing style
e oe
type system
type inference
lambda term
embedding pairs
define terms
constants e
soundness lemma
terms m
recursive type
r k
simple type
fixed point
equivalence classes
abstract transform
embedding pair
r app
computational effects
computational effect
conditions y
m oe
oe r
recursive types
continuation passing
c r
value v
definition 3
gamma x
closed term
oe n
denotational semantics
lemma 3
closed terms
c extended
point operator
oe 0
value evaluation
types oe
satisfies gamma
simple types
joe k
typing hypothesis
closed lambda
particular transform
joek fs
closure conditions
n pi
typing assertion
terms extended
retraction approach
joek r
e k
defined using
simply typed
oe m
term r
e r
x n
r exist
axiom r
every type
fs tg
equational correspondence
value pcf
r r
larger class
gamma m
k oe
compute r
let ae
omega gamma
x oe
e x
k instead
terms p
x m
oe x
modified computational transform
call by value
e and r
prove the retraction
transform t pi
logic of c
simple type oe
type oe r
retraction embedding pairs
c r e
r oe n
r r oe
e r app
retraction embedding pair
class of terms
classes of terms
computational lambda calculus
terms and types
fixed point operator
interpretation of types
continuation passing style
let x m
gamma m oe
terms to lambda
terms r oe
oe r oe
oe and e
ae x n
function s joek
define terms r
axioms of c
joek r r
joek fs tg
extend the retraction
transform we define
sound for call
lambda term r
lemma 3 10
x n pi
recursive type system
define the interpretation
interpretations of terms
r k oe
lambda terms m
extend the type
m of simple
type t oe
transform is defined
closed term m
interpretation of terms
terms of type
lemma 3 9
finally we define
call by name
m and n
y and z
transform we study
e x e
models of c
define the extended
transform of m
gamma x 1
pcf with assignment
two constants e
class of extensions
transforms as well
term m r
show s 1
r m pi
define the retraction
relation between direct
