priority
btps
pmac
flows
bt2
bt1
channel
tone
backo
stations
packets
802
ifs
station
busy
contention
packet
wireless
cts
throughput
hop
dcf
rts
di
backlogged
difs
transmission
interframe
erent
duration
cwh
aggregate
burst
kbps
transmissions
tra
mac
flow
protocol
delivery
erentiated
scheduling
transmitting
hoc
ack
slots
reservation
sensing
collision
slot
networks
lans
black
ad
1000m
node
carrier
idle
defer
timeout
collisions
hear
radio
window
coordination
send
band
sensed
scenario
pulse
bandwidth
medium
senses
sending
signals
competes
cwmax
bononi
rotolo
piroirty
cwmin
casone
cacace
receiving
access
timer
deferred
narrow
hidden
qos
transmit
delivers
starving
hiperlan
lili
danilo
200m
nodes
dialog
padhye
deliver
pcf
blasi
terminals
signal
elaborated
service
luca
waiting
monarch
turnaround
transmis
transmitted
gama
kamal
period
lan
venkata
jitendra
backoff
erence
mobile
source
padmanabhan
vincenzo
conflict
colliding
erently
salvatore
receive
interval
pri
num
luciano
qiu
spectrum
wait
sce
preference
collide
priorities
ensured
lasts
channels
ets
ratio
mbps
schemes
stage
disregard
terminal
ieee
1500
status
cmu
proposes
aggressive
355
topology
ective
9973152
14low
lifs
epfl
eifs
erenti
mobihoc
terframe
jobin
flow6
2311
dbtma
pifs
flow5
12001600200024002800
4820
flow4
etsi
donatiello
hifs
budriesi
pack
simulation
reversal
receiver
transmits
reception
sent
resolve
scenarios
ps
highest
sions
began
marco
jain
vint
ority
2645
felice
high priority
priority flows
priority packets
low priority
busy tone
priority source
802 11
ieee 802
data channel
aggregate throughput
source stations
priority scheduling
the channel
black burst
the backo
of high
channel access
priority packet
btps protocol
multi hop
priority flow
contention window
hop networks
node 1
interframe space
backo interval
di erent
contention degree
btps and
and pmac
a station
delivery ratio
11 dcf
tra c
hoc networks
cts timeout
tone signals
between btps
flow 4
proposed btps
nodes 0
priority tra
slot time
node 2
each station
priority classes
the ifs
erent priority
timeout duration
ad hoc
source station
the transmissions
in wireless
node 3
node 0
bt1 or
space duration
band busy
or bt2
pmac in
btps pmac
backo stage
for cts
pmac and
for pmac
pmac 7
di erentiated
ifs for
wireless lans
transmissions of
station that
that sense
will send
two narrow
reservation based
scheduling in
its transmission
sending rate
node 4
the busy
in multi
the transmission
erentiated service
and bt2
sense bt1
two busy
of btps
btps figure
rts packet
count down
in btps
pmac is
deferred for
after sensing
provide di
backo timer
coordination function
stations that
narrow band
is transmitting
channel becomes
based schemes
wireless networks
the contention
one slot
contention among
flow 1
tone channel
flows in
scenario 1
medium access
packet from
the high
flows are
on priority
all flows
cts data
flows 5
stations will
flows have
m slots
flows 1
mac protocol
when node
of ieee
packets for
each flow
flows the
of contention
of flows
distributed coordination
wireless ad
and ieee
the proposed
packet is
idle for
flows is
to priority
two slot
sense bt2
a bt1
of backo
backlogged high
access procedure
send bt2
defer their
their contention
of cwh
transmission group
and backo
space ifs
ifs of
always sense
of ifs
that senses
bt2 after
tone signal
nodes btps
of bt2
tone channels
incorporate di
bt1 and
packet backlogged
difs and
tone priority
sensing bt1
the interframe
aggressive sending
their transmissions
other station
six high
the aggregate
rts cts
flows with
this scheme
a low
simulation results
be idle
becomes idle
full use
a packet
maximum contention
terminal problem
scheduling table
not receiving
throughput comparison
a rts
defer its
flow 5
channel with
the reservation
waiting time
hidden terminals
throughput of
send a
function dcf
senses a
a cts
11 distributed
wireless network
high priority flows
of high priority
high priority packets
ieee 802 11
priority source stations
high priority source
the high priority
multi hop networks
priority scheduling in
low priority packets
low priority flows
low priority source
number of high
802 11 dcf
the data channel
ad hoc networks
nodes 0 and
delivery ratio of
high priority packet
ratio of high
busy tone signals
btps and pmac
in multi hop
priority tra c
high priority flow
the proposed btps
cts timeout duration
di erent priority
low priority packet
the aggregate throughput
the transmissions of
a high priority
a low priority
0 and 2
between btps and
two narrow band
interframe space duration
proposed btps protocol
band busy tone
priority flows the
narrow band busy
the busy tone
for cts timeout
bt1 or bt2
comparison between btps
one slot time
the backo interval
and low priority
for the channel
the channel access
of low priority
priority packets for
high priority tra
priority flows is
to count down
of btps protocol
for high priority
priority flows have
deferred for cts
stations that sense
to priority scheduling
erent priority classes
packets for node
priority source station
on priority scheduling
the delivery ratio
pmac and ieee
reservation based schemes
two busy tone
that sense bt1
flow 4 5
di erentiated service
scheduling in multi
btps pmac and
of ieee 802
channel becomes idle
busy tone channel
node 1 will
to be idle
high priority and
the channel becomes
wireless ad hoc
distributed coordination function
in wireless lans
aggregate throughput comparison
throughput comparison between
aggregate throughput of
packet is deferred
busy tone priority
low priority flow
priority packets in
channel access of
to provide di
six high priority
source stations the
busy tone channels
that high priority
window of high
station that senses
the ifs of
is not receiving
as the backo
priority and low
priority flows for
value of cwh
any other station
defer their transmissions
the black burst
their contention window
maximum contention window
is deferred for
backlogged high priority
the transmission group
every m slots
flows 5 and
that sense bt2
other station that
busy tone signal
from data channel
tone signals to
increase their contention
priority source nodes
channel access procedure
ifs for low
will send bt2
using two narrow
to incorporate di
the interframe space
after sensing bt1
bt1 and bt2
down the backo
provide di erentiated
the backo timer
aggressive sending rate
the backo stage
be idle for
contention window of
transmission at time
of a low
full use of
3 and 5
hidden terminal problem
of nodes 0
that di erent
priority packet is
scheduling in wireless
for low priority
when node 1
in scenario 1
the simulation results
simulation results demonstrate
sending rate of
802 11 distributed
and ieee 802
11 distributed coordination
two priority classes
after the transmission
when the channel
nodes 3 and
coordination function dcf
will send a
the channel with
on the data
4 5 6
channel to be
in ieee 802
the channel to
the scheme proposed
medium access control
between zero and
we mentioned earlier
for di erent
scheme proposed in
for a low
use of two
simulation results are
5 and 8
counted down to
priority packet backlogged
between making full
channel frequency spectrum
and half slot
backlogged node 2
and aggregate throughput
arrows indicate sensed
use di erent
3 know that
5 s duration
lili qiu impact
and pmac in
data packet will
be sent followed
cacace luca casone
group transmission period
throughput kbps number
slot time is
scheduling table which
to multi hop
its transmission at
difs and backo
