polydie
sa
sab
coin
oe
games
algol
die
arena
ua
arenas
cpo
probabilistic
mccusker
pcf
strategies
hereditarily
game
rng
sided
vb
legal
justifier
composition
probabilities
qa
factorization
category
idealized
moves
probability
opponent
strategy
semantics
roll
abramsky
rolled
player
abstraction
prestrategy
dsae
protagonists
psaq
cpos
bisimulation
deterministic
play
threaded
dom
subcategory
justified
pa
countable
iff
plays
wit
definability
ccc
det
xi
tab
caml
rational
falses
trues
dtae
homset
borelian
ehrhard
comonoid
harmer
string
soundness
countably
rationals
odd
trace
copycat
monoidal
ftt
homsets
polarized
definable
delta
enriched
fpc
flowcharts
mn
closed
isn
witnesses
bracketing
contextually
ia
subsequence
qb
markov
sigma
flavour
int
lub
witness
nondeterminism
la
flat
vw
jsj
numerators
irrational
composite
abstract
programmed
move
rolls
op
tensor
interactions
cartesian
composing
arrow
ub
factorized
tt
functionals
denotational
generalised
rec
ie
purely
evaluations
chances
mu
bool
qffqtt
timeless
malacaria
thetad
renor
psq
regnier
prestrategies
hyland
subprobability
baillot
definabil
chatters
programminglanguagecaml
mellies
eliding
quotienting
djahromi
vonneumann
copairing
intriguingly
hypercoherences
cocommutative
standardly
qffq
findk
likelier
bifunctor
smcc
nickau
discardable
thunking
primitive
traces
res
ho
compact
ground
ll
visibility
compose
constructor
prefix
powerdomains
danos
hma
terization
saheb
lubs
mel
needn
jus
egory
copyable
abled
pointers
fair
interaction
strings
equivalence
quotient
full abstraction
sided die
game semantics
w ua
sa 2
fully abstract
idealized algol
local probabilities
strategy oe
l odd
initial moves
rng oe
probabilistic strategy
c vb
games model
det oe
legal plays
deterministic strategy
dom oe
abstract game
trace set
oe sab
threaded strategies
single threaded
l even
legal play
flat arenas
legal interactions
random int
basis strategy
hereditarily justified
cpo enriched
mccusker 3
games semantics
probabilistic primitive
sab 2
abramsky mccusker
oe sa
total strategy
labeled markov
probability 1
f delta
factorization result
finite trace
markov processes
cartesian closed
deterministic games
soundness result
re done
oe theta
closed terms
real arithmetic
delta oe
fair coin
purely functional
b occurs
set oe
even length
probability measure
called intrinsic
coin 0
compose polydie
ub c
prestrategy oe
deterministic factorization
probabilistic strategies
finite nondeterminism
algol using
condition iff
moves hereditarily
initial occurrence
sequential functionals
mu 2
w sa
copycat strategies
generalised flowcharts
harmer mccusker
similar flavour
composition formula
given sa
ua d
strategy det
irrational probability
justified string
passive expressions
always countable
general reasons
given strategies
basis strategies
strategies form
concurrent games
exact real
closed subcategory
continuous cpo
probabilistic algol
composing strategies
equal chances
immediate extensions
strategies oe
contextually equivalent
hereditarily sequential
fully abstract game
abstract game semantics
sa 2 l
sa 2 dom
single threaded strategies
finite trace set
model of pa
die is rolled
rng oe sa
fully abstract model
abramsky mccusker 3
labeled markov processes
probability of qa
justifier of b
bisimulation for labeled
sequence of rationals
probabilities are rational
games and full
extension of idealized
values in f0
closed under composition
oe i e
m and n
given s 2
u 2 wit
die is shown
non initial move
algol with passive
arenas a b
exact real arithmetic
sab i sa
cartesian closed subcategory
result follows xi
semantics for finite
moves hereditarily justified
opponent and player
oe the justifier
languages with control
given strategies oe
abstraction for pcf
trues and falses
set oe 3
abstraction for functional
theorem of abramsky
w ua d
b is justified
characterization of bisimulation
abstraction for fpc
hereditarily sequential functionals
moves of b
flowcharts and games
games a new
abstraction for idealized
roll k 1
note that p2
semantics of y
n are closed
re done otherwise
strategy det oe
thread of sa
oe is deterministic
set of strategies
e all legal
oe k u
extended with real
