ped
dependences
dependence
loop
parascope
interprocedural
pane
transformations
pfc
editor
fortran
ptool
parallelization
parallelism
loops
editing
enddo
interactive
private
button
edits
synchronization
mimdizer
buttons
interchange
array
users
displayed
edit
sink
sigmacs
ptran
inapplicable
transformation
kennedy
assertions
program
ir
skewing
display
dataflow
unsafe
analyzer
faust
vectorizing
scalar
pat
text
symbolic
nest
automatic
race
advice
statements
parallelized
superb
sequential
references
supercomputing
compiler
diagnostic
iteration
tool
vectorization
kathryn
ffis
subscripted
safe
anti
inhibit
programs
ken
conservative
flow
incremental
carried
chau
ffl
statement
tools
supercomputers
scientific
mckinley
wavefront
iterations
enabled
browser
codes
pcf
miscellaneous
dependence analysis
the dependence
dependence graph
parallel programming
parascope editor
the parascope
the loop
of dependences
interprocedural analysis
the user
the dependences
ped is
dependences that
in ped
programming environment
the program
dependence information
dependences in
ffl loop
transformations are
a loop
loop carried
dependence pane
text pane
program transformations
loop and
of dependence
ir n
parallel loop
a parallel
event synchronization
a dependence
of interprocedural
in parallel
s 1
control flow
carried dependences
dependence analyzer
dependences for
dependence testing
loop interchange
the ir
statement dependence
of ped
dependence display
enddo enddo
ped s
pane the
dependence is
interactive parallel
current dependence
analysis and
the transformation
data dependence
constant propagation
iteration space
array references
loop level
a transformation
an interactive
run in
reordering transformations
structured transformations
ped has
dependences the
variable classification
control dependence
i loop
data dependences
a program
side effects
synchronization in
programming tool
dependences are
assignment statement
loop may
transformations that
the transformations
private variables
editor a
dependence s
parallel fortran
n programming
current loop
ken kennedy
be run
user selects
loop nest
loop in
independent statements
the parascope editor
the dependence graph
a parallel programming
the dependence pane
the text pane
run in parallel
in the dependence
parallel programming environment
loop carried dependences
the ir n
in a parallel
a parallel loop
be run in
dependence graph and
statement dependence graph
dependence analysis and
of the program
dependence analysis for
parallel programming tool
the current dependence
interactive parallel programming
of the dependences
interprocedural analysis and
of the loop
dependence analysis in
in the program
synchronization in a
dependences in the
loop level parallelism
the dependence analyzer
event synchronization in
the dependences in
the dependence display
of dependence analysis
control and data
if the transformation
ir n programming
the current loop
dependences in a
n programming environment
and the dependence
for subscripted variables
of interprocedural analysis
in a program
the i loop
analysis and optimization
is an interactive
the iteration space
in the loop
the loop and
s 1 ffis
scalar dataflow analysis
imprecise dependence analysis
the transformation algorithms
dependence is preserved
all the dependences
s 1 indicates
s 2 later
when s 1
occurs when s
programming environment an
programs for parallel
parascope editor is
provided by ped
the wavefront method
to assist users
of dependence information
transformations are enabled
dependence pane the
dependence occurs when
enddo enddo enddo
text and structure
interprocedural analysis of
and sink variable
interactive program transformations
assist users in
dependence s 1
into a parallel
of the parascope
loop and used
and its use
the user selects
of the dependence
the user is
the precision of
of an edit
user selects the
incremental dependence analysis
dependences for the
are enabled when
